Version 4
SHEET 1 1304 680
WIRE 320 -352 -80 -352
WIRE 384 -352 320 -352
WIRE 528 -352 384 -352
WIRE 688 -352 528 -352
WIRE 1248 -352 688 -352
WIRE 1248 -320 1248 -352
WIRE 1024 -304 944 -304
WIRE 1184 -304 1104 -304
WIRE 944 -272 944 -304
WIRE 528 -256 528 -272
WIRE 640 -256 528 -256
WIRE 672 -256 640 -256
WIRE 784 -256 752 -256
WIRE 640 -208 640 -256
WIRE 528 -176 528 -192
WIRE 528 -176 480 -176
WIRE 480 -160 480 -176
WIRE 528 -160 528 -176
WIRE 784 -160 768 -160
WIRE 640 -112 640 -144
WIRE 768 -112 768 -160
WIRE 768 -112 640 -112
WIRE 944 -96 944 -144
WIRE 1248 -96 1248 -192
WIRE 1248 -96 944 -96
WIRE 480 -64 480 -96
WIRE 528 -64 528 -80
WIRE 528 -64 480 -64
WIRE 640 -64 640 -112
WIRE 640 -64 528 -64
WIRE 688 -64 688 -352
WIRE 528 -48 528 -64
WIRE -80 16 -80 -352
WIRE 384 48 384 -352
WIRE 528 48 528 32
WIRE 688 96 688 16
WIRE 688 96 592 96
WIRE 1248 128 1248 -96
WIRE 384 192 384 128
WIRE 416 192 384 192
WIRE 528 192 528 144
WIRE 528 192 496 192
WIRE 384 224 384 192
WIRE 320 240 320 -352
WIRE 384 320 384 304
WIRE 320 352 320 320
WIRE 320 352 240 352
WIRE 352 352 320 352
WIRE 240 384 240 352
WIRE 320 384 320 352
WIRE -80 496 -80 96
WIRE 240 496 240 448
WIRE 240 496 -80 496
WIRE 320 496 320 464
WIRE 320 496 240 496
WIRE 384 496 384 464
WIRE 384 496 320 496
WIRE 1248 496 1248 208
WIRE 1248 496 384 496
WIRE 384 528 384 496
FLAG 384 528 0
SYMBOL Misc\\EuropeanResistor 336 224 M0
SYMATTR InstName R1
SYMATTR Value 33k
SYMBOL Reguladores\\TL431 384 352 M0
WINDOW 38 -39 28 Center 2
WINDOW 0 -9 -27 Right 2
SYMATTR InstName U1
SYMBOL Misc\\EuropeanResistor 336 368 M0
SYMATTR InstName R2
SYMATTR Value 2.2k
SYMBOL Misc\\EuropeanResistor 400 32 M0
SYMATTR InstName R3
SYMATTR Value 10k
SYMBOL Tiristores\\MAC15A8 1248 -256 M180
SYMATTR InstName U2
SYMBOL voltage -80 0 R0
WINDOW 123 0 0 Left 0
WINDOW 39 0 0 Left 0
SYMATTR InstName V1
SYMATTR Value 1
SYMBOL Misc\\EuropeanResistor 1264 112 M0
SYMATTR InstName R4
SYMATTR Value 1n
SYMBOL npn 592 48 M0
SYMATTR InstName Q1
SYMATTR Value BC548Bv
SYMBOL Misc\\EuropeanResistor 672 32 M180
WINDOW 0 31 76 Left 2
WINDOW 3 31 40 Left 2
SYMATTR InstName R6
SYMATTR Value 10k
SYMBOL Misc\\EuropeanResistor 512 48 M180
WINDOW 0 31 76 Left 2
WINDOW 3 31 40 Left 2
SYMATTR InstName R7
SYMATTR Value 510
SYMBOL LED 544 -256 M0
SYMATTR InstName D1
SYMATTR Value Dled_red
SYMATTR Description Diode
SYMATTR Type diode
SYMBOL Misc\\EuropeanResistor 512 -64 M180
WINDOW 0 31 76 Left 2
WINDOW 3 31 40 Left 2
SYMATTR InstName R8
SYMATTR Value 330
SYMBOL zener 656 -144 R180
WINDOW 0 24 64 Left 2
WINDOW 3 24 0 Left 2
SYMATTR InstName D2
SYMATTR Value BZX79C5V1
SYMATTR Description Diode
SYMATTR Type diode
SYMBOL Misc\\EuropeanResistor 368 480 M180
WINDOW 0 31 76 Left 2
WINDOW 3 31 40 Left 2
SYMATTR InstName R11
SYMATTR Value 1µ
SYMBOL Misc\\EuropeanResistor 368 320 M180
WINDOW 0 31 76 Left 2
WINDOW 3 31 40 Left 2
SYMATTR InstName R9
SYMATTR Value 1µ
SYMBOL Misc\\EuropeanResistor 512 208 M270
WINDOW 0 27 56 VTop 2
WINDOW 3 5 56 VBottom 2
SYMATTR InstName R10
SYMATTR Value 100
SYMBOL Misc\\EuropeanResistor 768 -240 M270
WINDOW 0 27 56 VTop 2
WINDOW 3 5 56 VBottom 2
SYMATTR InstName R5
SYMATTR Value 330
SYMBOL Optos\\4N39 944 -208 R0
SYMATTR InstName U4
SYMBOL Misc\\EuropeanResistor 1120 -288 M270
WINDOW 0 27 56 VTop 2
WINDOW 3 5 56 VBottom 2
SYMATTR InstName R12
SYMATTR Value 1k
SYMBOL Misc\\EuropeanResistor 512 -256 M180
WINDOW 0 31 76 Left 2
WINDOW 3 31 40 Left 2
SYMATTR InstName R13
SYMATTR Value 1k
SYMBOL Misc\\EuropeanCap 256 384 M0
SYMATTR InstName C1
SYMATTR Value 100n
SYMBOL Misc\\EuropeanCap 496 -160 M0
SYMATTR InstName C2
SYMATTR Value 100n
TEXT -58 472 Left 2 !.dc V1 0 100 1m
